Version 4
SHEET 1 932 680
WIRE 720 -48 624 -48
WIRE 848 -48 784 -48
WIRE 624 64 624 -48
WIRE 704 64 624 64
WIRE 848 64 848 -48
WIRE 848 64 784 64
WIRE -16 128 -208 128
WIRE -288 144 -288 80
WIRE -208 224 -208 128
WIRE -144 224 -208 224
WIRE -16 240 -16 128
WIRE -16 240 -80 240
WIRE 48 240 -16 240
WIRE 352 240 304 240
WIRE 368 240 352 240
WIRE 512 240 416 240
WIRE 624 240 624 64
WIRE 624 240 592 240
WIRE 688 240 624 240
WIRE -288 256 -288 224
WIRE -144 256 -288 256
WIRE 848 256 848 64
WIRE 848 256 752 256
WIRE 928 256 848 256
WIRE -288 288 -288 256
WIRE -112 320 -112 272
WIRE 304 320 304 240
WIRE 720 336 720 288
WIRE -288 384 -288 368
FLAG -112 320 0
FLAG 176 416 0
FLAG 176 336 5V
FLAG -112 208 5V
FLAG -288 80 5V
FLAG -288 384 0
FLAG 48 240 Vref
FLAG 720 224 5V
FLAG 720 336 0
FLAG 688 272 Vref
FLAG 304 400 0
SYMBOL OpAmps\\LTC1150 -112 176 R0
SYMATTR InstName U1
SYMBOL res -304 128 R0
SYMATTR InstName R1
SYMATTR Value 10k
SYMBOL res -304 272 R0
SYMATTR InstName R2
SYMATTR Value 5k
SYMBOL voltage 176 320 R0
WINDOW 123 0 0 Left 0
WINDOW 39 0 0 Left 0
SYMATTR InstName V1
SYMATTR Value 5
SYMBOL OpAmps\\LTC1150 720 192 R0
SYMATTR InstName U2
SYMBOL cap 416 224 R90
WINDOW 0 0 32 VBottom 2
WINDOW 3 32 32 VTop 2
SYMATTR InstName C1
SYMATTR Value 1.59µ
SYMBOL cap 784 -64 R90
WINDOW 0 0 32 VBottom 2
WINDOW 3 32 32 VTop 2
SYMATTR InstName C2
SYMATTR Value 14.46n
SYMBOL res 800 48 R90
WINDOW 0 0 56 VBottom 2
WINDOW 3 32 56 VTop 2
SYMATTR InstName R3
SYMATTR Value 22k
SYMBOL res 608 224 R90
WINDOW 0 0 56 VBottom 2
WINDOW 3 32 56 VTop 2
SYMATTR InstName R4
SYMATTR Value 1k
SYMBOL voltage 304 304 R0
WINDOW 123 24 124 Left 2
WINDOW 39 0 0 Left 0
SYMATTR Value2 AC 1 0
SYMATTR InstName V2
SYMATTR Value ""
TEXT -320 440 Left 2 !.ac dec 100 0.6 100000
