Version 4
SHEET 1 880 680
WIRE 128 32 96 32
WIRE 272 32 208 32
WIRE -224 144 -352 144
WIRE -16 144 -160 144
WIRE 96 144 96 32
WIRE 96 144 64 144
WIRE 144 144 96 144
WIRE 272 160 272 32
WIRE 272 160 208 160
WIRE 400 160 272 160
WIRE 144 176 96 176
WIRE 96 224 96 176
FLAG 0 416 0
FLAG -144 416 0
FLAG -352 224 0
FLAG 96 224 0
FLAG -144 336 5V
FLAG 176 128 5V
FLAG 0 336 -5V
FLAG 176 192 -5V
SYMBOL OpAmps\\LTC1150 176 96 R0
SYMATTR InstName U1
SYMBOL voltage 0 320 R0
WINDOW 123 0 0 Left 0
WINDOW 39 0 0 Left 0
SYMATTR InstName V1
SYMATTR Value -5
SYMBOL voltage -144 320 R0
WINDOW 123 0 0 Left 0
WINDOW 39 0 0 Left 0
SYMATTR InstName V2
SYMATTR Value 5
SYMBOL voltage -352 128 R0
WINDOW 123 24 124 Left 2
WINDOW 39 0 0 Left 0
SYMATTR InstName V3
SYMATTR Value ""
SYMATTR Value2 AC 1 0
SYMBOL res 80 128 R90
WINDOW 0 0 56 VBottom 2
WINDOW 3 32 56 VTop 2
SYMATTR InstName R1
SYMATTR Value 10k
SYMBOL res 224 16 R90
WINDOW 0 0 56 VBottom 2
WINDOW 3 32 56 VTop 2
SYMATTR InstName R2
SYMATTR Value 100k
SYMBOL cap -160 128 R90
WINDOW 0 0 32 VBottom 2
WINDOW 3 32 32 VTop 2
SYMATTR InstName C1
SYMATTR Value 0.159µ
TEXT -178 440 Left 2 !.ac dec 100 1 10000
